Version 4
SHEET 1 880 680
WIRE 96 -96 0 -96
WIRE 224 -96 160 -96
WIRE 0 -80 0 -96
WIRE 224 -64 224 -96
WIRE 0 48 0 0
WIRE 96 48 0 48
WIRE 224 48 224 16
WIRE 224 48 96 48
FLAG 224 -96 Vout
FLAG 0 -96 Vin
FLAG 96 48 0
SYMBOL diode 96 -80 R270
WINDOW 0 32 32 VTop 2
WINDOW 3 0 32 VBottom 2
SYMATTR InstName D1
SYMATTR Value MURS320
SYMBOL res 240 32 R180
WINDOW 0 36 76 Left 2
WINDOW 3 -42 74 Left 2
SYMATTR InstName R1
SYMATTR Value 39
SYMBOL voltage 0 -96 R0
WINDOW 123 0 0 Left 0
WINDOW 39 0 0 Left 0
WINDOW 3 21 121 Left 2
SYMATTR Value SINE(0 10 60)
SYMATTR InstName V1
TEXT 8 -176 Left 2 !.tran 0 0.5 0 10e-5
